L6/1726533/LineCodes.dss
! ==========================================================
! LINECODES — gerados de SEGCON
! R1/X1: dado da BDGD (ohm/km)
! R0/X0: PREMISSA — R0=3.0 x R1, X0=3.5 x X1
!        A BDGD nao traz sequencia zero. Ver README, secao "Limitacoes".
! normamps = CNOM (capacidade nominal), emergamps = CMAX
!
! COERENCIA R1 x CNOM: 4 condutores tiveram a resistencia substituida
! por estarem mais de 7.4x acima do previsto pelo ajuste calibrado nesta
! propria base (R1 = 508.6 x CNOM^-1.279, n=3566). Cada um esta
! marcado com "!! R1 CORRIGIDO" na sua linha. Ver README.
! ==========================================================

New LineCode.CND_1071_1F nphases=1 basefreq=60 units=km r1=1.55000 x1=0.52000 r0=4.65000 x0=1.82000 normamps=152.0 emergamps=197.6
New LineCode.CND_1091_1F nphases=1 basefreq=60 units=km r1=0.97000 x1=0.52000 r0=2.91000 x0=1.82000 normamps=204.0 emergamps=265.2
New LineCode.CND_1099_1F nphases=1 basefreq=60 units=km r1=0.97000 x1=0.52000 r0=2.91000 x0=1.82000 normamps=204.0 emergamps=265.2
New LineCode.CND_148_3F nphases=3 basefreq=60 units=km r1=0.81000 x1=0.27000 r0=2.43000 x0=0.94500 normamps=141.0 emergamps=183.3
New LineCode.CND_20_3F nphases=3 basefreq=60 units=km r1=0.81000 x1=0.27000 r0=2.43000 x0=0.94500 normamps=141.0 emergamps=183.3
New LineCode.CND_22_3F nphases=3 basefreq=60 units=km r1=0.97000 x1=0.52000 r0=2.91000 x0=1.82000 normamps=204.0 emergamps=265.2
New LineCode.CND_23_3F nphases=3 basefreq=60 units=km r1=0.83000 x1=0.12000 r0=2.49000 x0=0.42000 normamps=95.0 emergamps=152.0
New LineCode.CND_382_3F nphases=3 basefreq=60 units=km r1=0.97000 x1=0.52000 r0=2.91000 x0=1.82000 normamps=204.0 emergamps=265.2
New LineCode.CND_4_3F nphases=3 basefreq=60 units=km r1=0.25000 x1=0.43000 r0=0.75000 x0=1.50500 normamps=456.0 emergamps=592.8
New LineCode.CND_461_3F nphases=3 basefreq=60 units=km r1=0.81000 x1=0.27000 r0=2.43000 x0=0.94500 normamps=141.0 emergamps=183.3
New LineCode.CND_64_3F nphases=3 basefreq=60 units=km r1=0.97000 x1=0.52000 r0=2.91000 x0=1.82000 normamps=204.0 emergamps=265.2
New LineCode.CND_77_3F nphases=3 basefreq=60 units=km r1=0.81000 x1=0.27000 r0=2.43000 x0=0.94500 normamps=141.0 emergamps=183.3
New LineCode.CND_910_1F nphases=1 basefreq=60 units=km r1=1.55000 x1=0.52000 r0=4.65000 x0=1.82000 normamps=152.0 emergamps=197.6
New LineCode.CND_911_1F nphases=1 basefreq=60 units=km r1=0.81000 x1=0.27000 r0=2.43000 x0=0.94500 normamps=141.0 emergamps=183.3
New LineCode.CND_913_1F nphases=1 basefreq=60 units=km r1=0.97000 x1=0.52000 r0=2.91000 x0=1.82000 normamps=204.0 emergamps=265.2
New LineCode.CND_923_1F nphases=1 basefreq=60 units=km r1=0.97000 x1=0.52000 r0=2.91000 x0=1.82000 normamps=204.0 emergamps=265.2
New LineCode.CND_3_3F nphases=3 basefreq=60 units=km r1=0.25000 x1=0.43000 r0=0.75000 x0=1.50500 normamps=456.0 emergamps=592.8
New LineCode.CND_10_3F nphases=3 basefreq=60 units=km r1=0.81000 x1=0.27000 r0=2.43000 x0=0.94500 normamps=141.0 emergamps=183.3
New LineCode.CND_11_1F nphases=1 basefreq=60 units=km r1=1.55000 x1=0.52000 r0=4.65000 x0=1.82000 normamps=152.0 emergamps=197.6
New LineCode.CND_11_3F nphases=3 basefreq=60 units=km r1=1.55000 x1=0.52000 r0=4.65000 x0=1.82000 normamps=152.0 emergamps=197.6
New LineCode.CND_13_3F nphases=3 basefreq=60 units=km r1=0.15000 x1=0.09000 r0=0.45000 x0=0.31500 normamps=250.0 emergamps=290.0
New LineCode.CND_19_1F nphases=1 basefreq=60 units=km r1=0.97000 x1=0.52000 r0=2.91000 x0=1.82000 normamps=204.0 emergamps=265.2
New LineCode.CND_19_3F nphases=3 basefreq=60 units=km r1=0.97000 x1=0.52000 r0=2.91000 x0=1.82000 normamps=204.0 emergamps=265.2
New LineCode.CND_28_3F nphases=3 basefreq=60 units=km r1=0.15000 x1=0.09000 r0=0.45000 x0=0.31500 normamps=250.0 emergamps=290.0
New LineCode.CND_30_3F nphases=3 basefreq=60 units=km r1=0.33000 x1=0.59000 r0=0.99000 x0=2.06500 normamps=430.0 emergamps=559.0
New LineCode.CND_31_3F nphases=3 basefreq=60 units=km r1=0.15000 x1=0.09000 r0=0.45000 x0=0.31500 normamps=250.0 emergamps=290.0
New LineCode.CND_50_1F nphases=1 basefreq=60 units=km r1=1.55000 x1=0.52000 r0=4.65000 x0=1.82000 normamps=152.0 emergamps=197.6
New LineCode.CND_50_3F nphases=3 basefreq=60 units=km r1=1.55000 x1=0.52000 r0=4.65000 x0=1.82000 normamps=152.0 emergamps=197.6
New LineCode.CND_51_3F nphases=3 basefreq=60 units=km r1=0.97000 x1=0.52000 r0=2.91000 x0=1.82000 normamps=204.0 emergamps=265.2
New LineCode.CND_78_3F nphases=3 basefreq=60 units=km r1=0.15000 x1=0.09000 r0=0.45000 x0=0.31500 normamps=250.0 emergamps=290.0
New LineCode.CND_88_3F nphases=3 basefreq=60 units=km r1=0.33000 x1=0.59000 r0=0.99000 x0=2.06500 normamps=430.0 emergamps=559.0
New LineCode.CND_237_3F nphases=3 basefreq=60 units=km r1=0.97000 x1=0.52000 r0=2.91000 x0=1.82000 normamps=204.0 emergamps=265.2
New LineCode.CND_252_3F nphases=3 basefreq=60 units=km r1=1.55000 x1=0.52000 r0=4.65000 x0=1.82000 normamps=152.0 emergamps=197.6
New LineCode.CND_253_3F nphases=3 basefreq=60 units=km r1=0.33000 x1=0.59000 r0=0.99000 x0=2.06500 normamps=430.0 emergamps=559.0
New LineCode.CND_258_3F nphases=3 basefreq=60 units=km r1=0.97000 x1=0.52000 r0=2.91000 x0=1.82000 normamps=204.0 emergamps=265.2
New LineCode.CND_373_3F nphases=3 basefreq=60 units=km r1=0.97000 x1=0.52000 r0=2.91000 x0=1.82000 normamps=204.0 emergamps=265.2
New LineCode.CND_430_3F nphases=3 basefreq=60 units=km r1=0.81000 x1=0.27000 r0=2.43000 x0=0.94500 normamps=141.0 emergamps=183.3
New LineCode.CND_454_3F nphases=3 basefreq=60 units=km r1=0.25000 x1=0.43000 r0=0.75000 x0=1.50500 normamps=456.0 emergamps=592.8
New LineCode.CND_456_3F nphases=3 basefreq=60 units=km r1=0.97000 x1=0.52000 r0=2.91000 x0=1.82000 normamps=204.0 emergamps=265.2
New LineCode.CND_463_3F nphases=3 basefreq=60 units=km r1=0.97000 x1=0.52000 r0=2.91000 x0=1.82000 normamps=204.0 emergamps=265.2
New LineCode.CND_471_3F nphases=3 basefreq=60 units=km r1=1.55000 x1=0.52000 r0=4.65000 x0=1.82000 normamps=152.0 emergamps=197.6
New LineCode.CND_506_1F nphases=1 basefreq=60 units=km r1=1.55000 x1=0.52000 r0=4.65000 x0=1.82000 normamps=152.0 emergamps=197.6
New LineCode.CND_883_1F nphases=1 basefreq=60 units=km r1=0.97000 x1=0.52000 r0=2.91000 x0=1.82000 normamps=204.0 emergamps=265.2
New LineCode.CND_902_1F nphases=1 basefreq=60 units=km r1=0.97000 x1=0.52000 r0=2.91000 x0=1.82000 normamps=204.0 emergamps=265.2
New LineCode.CND_907_1F nphases=1 basefreq=60 units=km r1=1.55000 x1=0.52000 r0=4.65000 x0=1.82000 normamps=152.0 emergamps=197.6
New LineCode.CND_909_1F nphases=1 basefreq=60 units=km r1=1.55000 x1=0.52000 r0=4.65000 x0=1.82000 normamps=152.0 emergamps=197.6
New LineCode.CND_915_1F nphases=1 basefreq=60 units=km r1=0.81000 x1=0.27000 r0=2.43000 x0=0.94500 normamps=141.0 emergamps=183.3
New LineCode.CND_926_1F nphases=1 basefreq=60 units=km r1=0.97000 x1=0.52000 r0=2.91000 x0=1.82000 normamps=204.0 emergamps=265.2
New LineCode.CND_949_1F nphases=1 basefreq=60 units=km r1=0.15000 x1=0.09000 r0=0.45000 x0=0.31500 normamps=250.0 emergamps=290.0
New LineCode.CND_996_1F nphases=1 basefreq=60 units=km r1=1.55000 x1=0.52000 r0=4.65000 x0=1.82000 normamps=152.0 emergamps=197.6
New LineCode.CND_1027_1F nphases=1 basefreq=60 units=km r1=0.15000 x1=0.09000 r0=0.45000 x0=0.31500 normamps=250.0 emergamps=290.0
New LineCode.CND_1030_1F nphases=1 basefreq=60 units=km r1=0.97000 x1=0.52000 r0=2.91000 x0=1.82000 normamps=204.0 emergamps=265.2
New LineCode.CND_1037_1F nphases=1 basefreq=60 units=km r1=0.97000 x1=0.52000 r0=2.91000 x0=1.82000 normamps=204.0 emergamps=265.2
New LineCode.CND_1041_1F nphases=1 basefreq=60 units=km r1=0.81000 x1=0.27000 r0=2.43000 x0=0.94500 normamps=141.0 emergamps=183.3
New LineCode.CND_1062_1F nphases=1 basefreq=60 units=km r1=1.55000 x1=0.52000 r0=4.65000 x0=1.82000 normamps=152.0 emergamps=197.6
New LineCode.CND_1173_1F nphases=1 basefreq=60 units=km r1=0.97000 x1=0.52000 r0=2.91000 x0=1.82000 normamps=204.0 emergamps=265.2
New LineCode.CND_1209_1F nphases=1 basefreq=60 units=km r1=0.51000 x1=0.25000 r0=1.53000 x0=0.87500 normamps=180.0 emergamps=234.0
New LineCode.CND_1214_1F nphases=1 basefreq=60 units=km r1=1.04000 x1=0.08000 r0=3.12000 x0=0.28000 normamps=110.0 emergamps=176.0
New LineCode.CND_1223_1F nphases=1 basefreq=60 units=km r1=0.51000 x1=0.25000 r0=1.53000 x0=0.87500 normamps=180.0 emergamps=234.0
New LineCode.CND_1644_1F nphases=1 basefreq=60 units=km r1=0.97000 x1=0.52000 r0=2.91000 x0=1.82000 normamps=204.0 emergamps=265.2
New LineCode.CND_1851_1F nphases=1 basefreq=60 units=km r1=0.25000 x1=0.43000 r0=0.75000 x0=1.50500 normamps=456.0 emergamps=592.8

! condutor generico para trechos sem TIP_CND na base
